@<TRIPOS>MOLECULE
5983
 41 43 0 0 0
SMALL
GASTEIGER

@<TRIPOS>ATOM
      1 O           3.1345    0.3073    0.8004 O.3     1  UNL1       -0.4115
      2 O           3.2688   -0.4833   -1.3821 O.2     1  UNL1       -0.2260
      3 N          -3.2500   -0.7827   -1.0070 N.3     1  UNL1       -0.2867
      4 N          -2.2173    1.3840   -0.0244 N.pl3   1  UNL1       -0.3162
      5 N           5.1194   -0.5333    0.0161 N.am    1  UNL1       -0.2839
      6 C          -1.7224   -0.8243    0.8390 C.3     1  UNL1        0.0279
      7 C          -2.8316    0.0562    0.1433 C.3     1  UNL1        0.0860
      8 C          -1.7270   -2.1532    0.0775 C.3     1  UNL1       -0.0277
      9 C          -0.4849    0.0030    0.6162 C.ar    1  UNL1       -0.0139
     10 C          -3.0876   -2.1754   -0.5933 C.3     1  UNL1        0.0012
     11 C          -0.8472    1.2620    0.1219 C.ar    1  UNL1        0.0347
     12 C          -2.0015   -1.0151    2.3333 C.3     1  UNL1       -0.0525
     13 C          -4.6063   -0.5012   -1.4548 C.3     1  UNL1       -0.0111
     14 C           0.8391   -0.3389    0.8518 C.ar    1  UNL1       -0.0136
     15 C          -2.8841    2.4926   -0.6563 C.3     1  UNL1        0.0022
     16 C           0.1362    2.2048   -0.1411 C.ar    1  UNL1       -0.0369
     17 C           1.8245    0.6090    0.5813 C.ar    1  UNL1        0.1336
     18 C           1.4753    1.8731    0.0882 C.ar    1  UNL1       -0.0174
     19 C           3.8038   -0.2630   -0.2994 C.2     1  UNL1        0.4053
     20 C           6.0582   -1.1217   -0.9106 C.3     1  UNL1        0.0032
     21 H          -3.6819    0.1605    0.8328 H       1  UNL1        0.0680
     22 H          -1.5863   -3.0215    0.7299 H       1  UNL1        0.0287
     23 H          -0.9389   -2.1858   -0.6863 H       1  UNL1        0.0287
     24 H          -3.1011   -2.8619   -1.4456 H       1  UNL1        0.0427
     25 H          -3.8615   -2.4828    0.1214 H       1  UNL1        0.0427
     26 H          -1.2065   -1.5973    2.8132 H       1  UNL1        0.0239
     27 H          -2.0649   -0.0537    2.8563 H       1  UNL1        0.0239
     28 H          -2.9468   -1.5450    2.4944 H       1  UNL1        0.0239
     29 H          -4.8703   -1.1477   -2.2991 H       1  UNL1        0.0391
     30 H          -4.6919    0.5293   -1.8125 H       1  UNL1        0.0391
     31 H          -5.3478   -0.6551   -0.6627 H       1  UNL1        0.0391
     32 H           1.0999   -1.3185    1.2391 H       1  UNL1        0.0658
     33 H          -2.5385    3.4480   -0.2480 H       1  UNL1        0.0428
     34 H          -3.9641    2.4428   -0.4842 H       1  UNL1        0.0428
     35 H          -2.7076    2.4870   -1.7367 H       1  UNL1        0.0428
     36 H          -0.1121    3.1905   -0.5216 H       1  UNL1        0.0637
     37 H           2.2488    2.6089   -0.1182 H       1  UNL1        0.0655
     38 H           5.4457   -0.3054    0.9502 H       1  UNL1        0.1517
     39 H           6.4281   -2.0533   -0.4757 H       1  UNL1        0.0427
     40 H           6.8917   -0.4268   -1.0387 H       1  UNL1        0.0427
     41 H           5.5913   -1.3233   -1.8775 H       1  UNL1        0.0427
@<TRIPOS>BOND
     1     1    17    1
     2     1    19    1
     3     2    19    2
     4     3     7    1
     5     3    10    1
     6     3    13    1
     7     4     7    1
     8     4    11    1
     9     4    15    1
    10     5    19   am
    11     5    20    1
    12     5    38    1
    13     6     7    1
    14     6     8    1
    15     6     9    1
    16     6    12    1
    17     7    21    1
    18     8    10    1
    19     8    22    1
    20     8    23    1
    21     9    11   ar
    22     9    14   ar
    23    10    24    1
    24    10    25    1
    25    11    16   ar
    26    12    26    1
    27    12    27    1
    28    12    28    1
    29    13    29    1
    30    13    30    1
    31    13    31    1
    32    14    17   ar
    33    14    32    1
    34    15    33    1
    35    15    34    1
    36    15    35    1
    37    16    18   ar
    38    16    36    1
    39    17    18   ar
    40    18    37    1
    41    20    39    1
    42    20    40    1
    43    20    41    1
